*Heading
** Job name: DCB_coarse Model name: Model-1
** Generated by: Abaqus/CAE 2019
*Preprint, echo=NO, model=NO, history=NO, contact=NO
**
** PARTS
**
*Part, name=auelPart1
*Node
1, 30.0, 20.0, 0.0
2, 31.0, 20.0, 0.0
3, 32.0, 20.0, 0.0
4, 33.0, 20.0, 0.0
5, 34.0, 20.0, 0.0
6, 35.0, 20.0, 0.0
7, 36.0, 20.0, 0.0
8, 37.0, 20.0, 0.0
9, 38.0, 20.0, 0.0
10, 39.0, 20.0, 0.0
11, 40.0, 20.0, 0.0
12, 41.0, 20.0, 0.0
13, 42.0, 20.0, 0.0
14, 43.0, 20.0, 0.0
15, 44.0, 20.0, 0.0
16, 45.0, 20.0, 0.0
17, 46.0, 20.0, 0.0
18, 47.0, 20.0, 0.0
19, 48.0, 20.0, 0.0
20, 49.0, 20.0, 0.0
** ... 2962 like lines cut
*USER ELEMENT, TYPE=U308, NODES=8, COORDINATES=3, PROPERTIES=10, IPROPERTIES=1, VARIABLES=1
1,2,3
*ELEMENT, TYPE=U308, ELSET=auelPart1
1, 72, 73, 2, 1, 1563, 1564, 1493, 1492
2, 73, 74, 3, 2, 1564, 1565, 1494, 1493
3, 74, 75, 4, 3, 1565, 1566, 1495, 1494
4, 75, 76, 5, 4, 1566, 1567, 1496, 1495
5, 76, 77, 6, 5, 1567, 1568, 1497, 1496
6, 77, 78, 7, 6, 1568, 1569, 1498, 1497
7, 78, 79, 8, 7, 1569, 1570, 1499, 1498
8, 79, 80, 9, 8, 1570, 1571, 1500, 1499
9, 80, 81, 10, 9, 1571, 1572, 1501, 1500
10, 81, 82, 11, 10, 1572, 1573, 1502, 1501
11, 82, 83, 12, 11, 1573, 1574, 1503, 1502
12, 83, 84, 13, 12, 1574, 1575, 1504, 1503
13, 84, 85, 14, 13, 1575, 1576, 1505, 1504
14, 85, 86, 15, 14, 1576, 1577, 1506, 1505
15, 86, 87, 16, 15, 1577, 1578, 1507, 1506
16, 87, 88, 17, 16, 1578, 1579, 1508, 1507
17, 88, 89, 18, 17, 1579, 1580, 1509, 1508
18, 89, 90, 19, 18, 1580, 1581, 1510, 1509
19, 90, 91, 20, 19, 1581, 1582, 1511, 1510
20, 91, 92, 21, 20, 1582, 1583, 1512, 1511
** ... 1380 like lines cut
*Nset, nset=CE-all, generate
    1,  2982,     1
*UEL PROPERTY, ELSET=auelPart1
1.0e6, 57., 57., 0.28, 0.28, 1.0, 0.0, 0.0
1.0, 1.0, 1
** K,  tnc, tsc, Gnc,  Gsc, alpha, neta, cof
** dmax, power_fg, part_id
*Elset, elset=CE-all, generate
    1,  1400,     1
*Nset, nset=ce-bot, generate
    1,  1491,     1
*Nset, nset=ce-top, generate
 1492,  2982,     1
** Section: CE
*Cohesive Section, elset=CE-all, controls=EC-1, material=CE, response=TRACTION SEPARATION
, 
*End Part
**  
** end of auelPart ** 
*Part, name=bot
*Node
      1,         100.,          20.,          1.5
      2,         100.,          19.,          1.5
      3,         100.,          18.,          1.5
      4,         100.,          17.,          1.5
      5,         100.,          16.,          1.5
      6,         100.,          15.,          1.5
      7,         100.,          14.,          1.5
      8,         100.,          13.,          1.5
      9,         100.,          12.,          1.5
     10,         100.,          11.,          1.5
     11,         100.,          10.,          1.5
     12,         100.,           9.,          1.5
     13,         100.,           8.,          1.5
     14,         100.,           7.,          1.5
     15,         100.,           6.,          1.5
     16,         100.,           5.,          1.5
     17,         100.,           4.,          1.5
     18,         100.,           3.,          1.5
     19,         100.,           2.,          1.5
     20,         100.,           1.,          1.5
** ... 10585 like lines cut
*Element, type=C3D8
   1,   106,   107,   128,   127,     1,     2,    23,    22
   2,   107,   108,   129,   128,     2,     3,    24,    23
   3,   108,   109,   130,   129,     3,     4,    25,    24
   4,   109,   110,   131,   130,     4,     5,    26,    25
   5,   110,   111,   132,   131,     5,     6,    27,    26
   6,   111,   112,   133,   132,     6,     7,    28,    27
   7,   112,   113,   134,   133,     7,     8,    29,    28
   8,   113,   114,   135,   134,     8,     9,    30,    29
   9,   114,   115,   136,   135,     9,    10,    31,    30
  10,   115,   116,   137,   136,    10,    11,    32,    31
  11,   116,   117,   138,   137,    11,    12,    33,    32
  12,   117,   118,   139,   138,    12,    13,    34,    33
  13,   118,   119,   140,   139,    13,    14,    35,    34
  14,   119,   120,   141,   140,    14,    15,    36,    35
  15,   120,   121,   142,   141,    15,    16,    37,    36
  16,   121,   122,   143,   142,    16,    17,    38,    37
  17,   122,   123,   144,   143,    17,    18,    39,    38
  18,   123,   124,   145,   144,    18,    19,    40,    39
  19,   124,   125,   146,   145,    19,    20,    41,    40
  20,   125,   126,   147,   146,    20,    21,    42,    41
** ... 7980 like lines cut
*Nset, nset=_PickedSet6, internal, generate
     1,  10605,      1
*Elset, elset=_PickedSet6, internal, generate
    1,  8000,     1
*Nset, nset=bot-load, generate
 10585,  10605,      1
*Elset, elset=bot-load, generate
 7981,  8000,     1
*Elset, elset=_bot-tie_S3, internal
    1,    2,    3,    4,    5,    6,    7,    8,    9,   10,   11,   12,   13,   14,   15,   16
   17,   18,   19,   20,   81,   82,   83,   84,   85,   86,   87,   88,   89,   90,   91,   92
   93,   94,   95,   96,   97,   98,   99,  100,  161,  162,  163,  164,  165,  166,  167,  168
  169,  170,  171,  172,  173,  174,  175,  176,  177,  178,  179,  180,  241,  242,  243,  244
  245,  246,  247,  248,  249,  250,  251,  252,  253,  254,  255,  256,  257,  258,  259,  260
  321,  322,  323,  324,  325,  326,  327,  328,  329,  330,  331,  332,  333,  334,  335,  336
  337,  338,  339,  340,  401,  402,  403,  404,  405,  406,  407,  408,  409,  410,  411,  412
  413,  414,  415,  416,  417,  418,  419,  420,  481,  482,  483,  484,  485,  486,  487,  488
  489,  490,  491,  492,  493,  494,  495,  496,  497,  498,  499,  500,  561,  562,  563,  564
  565,  566,  567,  568,  569,  570,  571,  572,  573,  574,  575,  576,  577,  578,  579,  580
  641,  642,  643,  644,  645,  646,  647,  648,  649,  650,  651,  652,  653,  654,  655,  656
  657,  658,  659,  660,  721,  722,  723,  724,  725,  726,  727,  728,  729,  730,  731,  732
  733,  734,  735,  736,  737,  738,  739,  740,  801,  802,  803,  804,  805,  806,  807,  808
  809,  810,  811,  812,  813,  814,  815,  816,  817,  818,  819,  820,  881,  882,  883,  884
  885,  886,  887,  888,  889,  890,  891,  892,  893,  894,  895,  896,  897,  898,  899,  900
  961,  962,  963,  964,  965,  966,  967,  968,  969,  970,  971,  972,  973,  974,  975,  976
  977,  978,  979,  980, 1041, 1042, 1043, 1044, 1045, 1046, 1047, 1048, 1049, 1050, 1051, 1052
 1053, 1054, 1055, 1056, 1057, 1058, 1059, 1060, 1121, 1122, 1123, 1124, 1125, 1126, 1127, 1128
 1129, 1130, 1131, 1132, 1133, 1134, 1135, 1136, 1137, 1138, 1139, 1140, 1201, 1202, 1203, 1204
 1205, 1206, 1207, 1208, 1209, 1210, 1211, 1212, 1213, 1214, 1215, 1216, 1217, 1218, 1219, 1220
** ... 105 like lines cut
*Surface, type=ELEMENT, name=bot-tie
_bot-tie_S3, S3
*Orientation, name=Ori-1
1., 0., 0., 0., 1., 0.
1, 0.
** Section: solid
*Solid Section, elset=_PickedSet6, orientation=Ori-1, material=solid
,
*End Part
**  
*Part, name=top
*Node
      1,         100.,          20.,          1.5
      2,         100.,          19.,          1.5
      3,         100.,          18.,          1.5
      4,         100.,          17.,          1.5
      5,         100.,          16.,          1.5
      6,         100.,          15.,          1.5
      7,         100.,          14.,          1.5
      8,         100.,          13.,          1.5
      9,         100.,          12.,          1.5
     10,         100.,          11.,          1.5
     11,         100.,          10.,          1.5
     12,         100.,           9.,          1.5
     13,         100.,           8.,          1.5
     14,         100.,           7.,          1.5
     15,         100.,           6.,          1.5
     16,         100.,           5.,          1.5
     17,         100.,           4.,          1.5
     18,         100.,           3.,          1.5
     19,         100.,           2.,          1.5
     20,         100.,           1.,          1.5
** ... 10585 like lines cut
*Element, type=C3D8
   1,   106,   107,   128,   127,     1,     2,    23,    22
   2,   107,   108,   129,   128,     2,     3,    24,    23
   3,   108,   109,   130,   129,     3,     4,    25,    24
   4,   109,   110,   131,   130,     4,     5,    26,    25
   5,   110,   111,   132,   131,     5,     6,    27,    26
   6,   111,   112,   133,   132,     6,     7,    28,    27
   7,   112,   113,   134,   133,     7,     8,    29,    28
   8,   113,   114,   135,   134,     8,     9,    30,    29
   9,   114,   115,   136,   135,     9,    10,    31,    30
  10,   115,   116,   137,   136,    10,    11,    32,    31
  11,   116,   117,   138,   137,    11,    12,    33,    32
  12,   117,   118,   139,   138,    12,    13,    34,    33
  13,   118,   119,   140,   139,    13,    14,    35,    34
  14,   119,   120,   141,   140,    14,    15,    36,    35
  15,   120,   121,   142,   141,    15,    16,    37,    36
  16,   121,   122,   143,   142,    16,    17,    38,    37
  17,   122,   123,   144,   143,    17,    18,    39,    38
  18,   123,   124,   145,   144,    18,    19,    40,    39
  19,   124,   125,   146,   145,    19,    20,    41,    40
  20,   125,   126,   147,   146,    20,    21,    42,    41
** ... 7980 like lines cut
*Nset, nset=_PickedSet17, internal, generate
     1,  10605,      1
*Elset, elset=_PickedSet17, internal, generate
    1,  8000,     1
*Nset, nset=top-load, generate
 10501,  10521,      1
*Elset, elset=top-load, generate
 7921,  7940,     1
*Elset, elset=_top-tie_S5, internal
   61,   62,   63,   64,   65,   66,   67,   68,   69,   70,   71,   72,   73,   74,   75,   76
   77,   78,   79,   80,  141,  142,  143,  144,  145,  146,  147,  148,  149,  150,  151,  152
  153,  154,  155,  156,  157,  158,  159,  160,  221,  222,  223,  224,  225,  226,  227,  228
  229,  230,  231,  232,  233,  234,  235,  236,  237,  238,  239,  240,  301,  302,  303,  304
  305,  306,  307,  308,  309,  310,  311,  312,  313,  314,  315,  316,  317,  318,  319,  320
  381,  382,  383,  384,  385,  386,  387,  388,  389,  390,  391,  392,  393,  394,  395,  396
  397,  398,  399,  400,  461,  462,  463,  464,  465,  466,  467,  468,  469,  470,  471,  472
  473,  474,  475,  476,  477,  478,  479,  480,  541,  542,  543,  544,  545,  546,  547,  548
  549,  550,  551,  552,  553,  554,  555,  556,  557,  558,  559,  560,  621,  622,  623,  624
  625,  626,  627,  628,  629,  630,  631,  632,  633,  634,  635,  636,  637,  638,  639,  640
  701,  702,  703,  704,  705,  706,  707,  708,  709,  710,  711,  712,  713,  714,  715,  716
  717,  718,  719,  720,  781,  782,  783,  784,  785,  786,  787,  788,  789,  790,  791,  792
  793,  794,  795,  796,  797,  798,  799,  800,  861,  862,  863,  864,  865,  866,  867,  868
  869,  870,  871,  872,  873,  874,  875,  876,  877,  878,  879,  880,  941,  942,  943,  944
  945,  946,  947,  948,  949,  950,  951,  952,  953,  954,  955,  956,  957,  958,  959,  960
 1021, 1022, 1023, 1024, 1025, 1026, 1027, 1028, 1029, 1030, 1031, 1032, 1033, 1034, 1035, 1036
 1037, 1038, 1039, 1040, 1101, 1102, 1103, 1104, 1105, 1106, 1107, 1108, 1109, 1110, 1111, 1112
 1113, 1114, 1115, 1116, 1117, 1118, 1119, 1120, 1181, 1182, 1183, 1184, 1185, 1186, 1187, 1188
 1189, 1190, 1191, 1192, 1193, 1194, 1195, 1196, 1197, 1198, 1199, 1200, 1261, 1262, 1263, 1264
 1265, 1266, 1267, 1268, 1269, 1270, 1271, 1272, 1273, 1274, 1275, 1276, 1277, 1278, 1279, 1280
** ... 105 like lines cut
*Surface, type=ELEMENT, name=top-tie
_top-tie_S5, S5
*Orientation, name=Ori-1
1., 0., 0., 0., 1., 0.
1, 0.
** Section: solid
*Solid Section, elset=_PickedSet17, orientation=Ori-1, material=solid
,
*End Part
**  
**
** ASSEMBLY
**
*Assembly, name=Assembly
**  
*Instance, name=auelPart1-1, part=auelPart1
*End Instance
**  
*Instance, name=bot-1, part=bot
          0.,           0.,         -1.5
*End Instance
**  
*Instance, name=top-1, part=top
*End Instance
**  
*Nset, nset=fix-bc, instance=bot-1, generate
   1,  105,    1
*Nset, nset=fix-bc, instance=top-1, generate
   1,  105,    1
*Elset, elset=fix-bc, instance=bot-1, generate
  1,  80,   1
*Elset, elset=fix-bc, instance=top-1, generate
  1,  80,   1
*Surface, type=NODE, name=auelPart1-1_ce-bot_CNS_, internal
auelPart1-1.ce-bot, 1.
*Surface, type=NODE, name=auelPart1-1_ce-top_CNS_, internal
auelPart1-1.ce-top, 1.
** Constraint: Constraint-1
*Tie, name=Constraint-1, adjust=no
auelPart1-1_ce-bot_CNS_, bot-1.bot-tie
** Constraint: Constraint-2
*Tie, name=Constraint-2, adjust=no
auelPart1-1_ce-top_CNS_, top-1.top-tie
*End Assembly
** 
** ELEMENT CONTROLS
** 
*Section Controls, name=EC-1, VISCOSITY=5e-05
1., 1., 1.
** 
** MATERIALS
** 
*Material, name=CE
*Damage Initiation, criterion=QUADS
57.,57.,57.
*Damage Evolution, type=ENERGY, mixed mode behavior=BK, power=1.
 0.28, 0.28, 0.28
*Damage Stabilization
0.0001
*Elastic, type=TRACTION
 1e+06, 1e+06, 1e+06
*Material, name=Umat
*Depvar
      6,
*User Material, constants=10
 1e+06,    57.,    57.,   0.28,   0.28,     1., 0.0001,     0.
     1.,     1.
*Material, name=solid
*Elastic, type=ENGINEERING CONSTANTS
135300.,9000.,9000., 0.24, 0.24, 0.46,5200.,5200.
3080.,
** 
** BOUNDARY CONDITIONS
** 
** Name: BC-3 Type: Displacement/Rotation
*Boundary
fix-bc, 1, 1
fix-bc, 2, 2
fix-bc, 3, 3
** ----------------------------------------------------------------
** 
** STEP: Step-1
** 
*Step, name=Step-1, nlgeom=NO, inc=10000
*Static
0.001, 1., 1e-07, 0.001
** 
** BOUNDARY CONDITIONS
** 
** Name: BC-1 Type: Displacement/Rotation
*Boundary
top-1.top-load, 3, 3, 10.
** Name: BC-2 Type: Displacement/Rotation
*Boundary
bot-1.bot-load, 3, 3, -10.
** 
** CONTROLS
** 
*Controls, reset
*Controls, parameters=time incrementation
20, 30, 5, 40, 40, , , 20, , , 
*Controls, parameters=field, field=displacement
0.02, 0.02, , , 0.04, , , 
*Controls, parameters=field, field=hydrostatic fluid pressure
0.02, 0.02, , , 0.04, , , 
*Controls, parameters=field, field=rotation
0.02, 0.02, , , 0.04, , , 
*Controls, parameters=field, field=electrical potential
0.02, 0.02, , , 0.04, , , 
** 
** OUTPUT REQUESTS
** 
*Restart, write, frequency=0
** 
** FIELD OUTPUT: F-Output-1
** 
*Output, field
*Node Output
CF, RF, U
*Element Output, directions=YES
LE, PE, PEEQ, PEMAG, S, SDV
*Contact Output
CDISP, CSTRESS
** 
** HISTORY OUTPUT: H-Output-1
** 
*Output, history, variable=PRESELECT
*End Step
